Version 4
SHEET 1 1168 680
WIRE -64 -432 -288 -432
WIRE 192 -432 -64 -432
WIRE 192 -384 192 -432
WIRE 192 -384 112 -384
WIRE 272 -384 192 -384
WIRE -288 -352 -288 -432
WIRE -64 -352 -64 -432
WIRE 112 -352 112 -384
WIRE 272 -336 272 -384
WIRE 112 -224 112 -272
WIRE 192 -224 112 -224
WIRE 272 -224 272 -272
WIRE 272 -224 192 -224
WIRE 192 -176 192 -224
WIRE 320 -176 192 -176
WIRE 448 -176 384 -176
WIRE -256 -128 -544 -128
WIRE -64 -128 -64 -272
WIRE -64 -128 -192 -128
WIRE 128 -128 -64 -128
WIRE -64 -80 -64 -128
WIRE 448 -80 448 -176
WIRE -544 -48 -544 -128
WIRE -64 32 -64 0
WIRE 192 32 192 0
WIRE 448 32 448 0
FLAG -544 32 0
FLAG -64 32 0
FLAG 192 32 0
FLAG 448 32 0
FLAG -288 -272 0
FLAG -544 -128 in
FLAG 448 -176 out
FLAG -288 -432 supply
SYMBOL voltage -544 -64 R0
WINDOW 123 0 0 Left 0
WINDOW 39 0 0 Left 0
SYMATTR InstName V2
SYMATTR Value AC 1
SYMBOL voltage -288 -368 R0
WINDOW 123 0 0 Left 0
WINDOW 39 0 0 Left 0
SYMATTR InstName V1
SYMATTR Value 10
SYMBOL res 432 -96 R0
SYMATTR InstName R1
SYMATTR Value 120
SYMBOL res 176 -96 R0
SYMATTR InstName R2
SYMATTR Value 3.3
SYMBOL res -80 -96 R0
SYMATTR InstName R3
SYMATTR Value 100
SYMBOL res -80 -368 R0
SYMATTR InstName R4
SYMATTR Value 1.5k
SYMBOL ind 96 -368 R0
SYMATTR InstName L1
SYMATTR Value 10µ
SYMBOL cap 256 -336 R0
SYMATTR InstName C1
SYMATTR Value 10n
SYMBOL cap -192 -144 R90
WINDOW 0 0 32 VBottom 2
WINDOW 3 32 32 VTop 2
SYMATTR InstName C2
SYMATTR Value 100n
SYMBOL cap 384 -192 R90
WINDOW 0 0 32 VBottom 2
WINDOW 3 32 32 VTop 2
SYMATTR InstName C3
SYMATTR Value 1µ
SYMBOL npn 128 -176 R0
SYMATTR InstName Q1
SYMATTR Value 2N2222
TEXT -608 -544 Left 2 ;.tran 0 1.1m 1m
TEXT 792 -440 Left 2 !.meas pin AVG V(supply)*I(V1)
TEXT 792 -408 Left 2 !.meas pout AVG V(out)*I(R1)
TEXT 792 -376 Left 2 !.meas eff param -100*pout/pin
TEXT 792 -320 Left 2 !.meas out PP V(out)
TEXT 792 -288 Left 2 !.meas in PP V(in)
TEXT 792 -256 Left 2 !.meas gain param out/in
TEXT -568 184 Left 2 !.step param amp 0.1 0.7 0.1
TEXT -608 -512 Left 2 !.ac dec 101 1k 1G
