Version 4
SHEET 1 2644 1396
WIRE -256 -368 -480 -368
WIRE 0 -368 -256 -368
WIRE 0 -320 0 -368
WIRE 0 -320 -80 -320
WIRE 80 -320 0 -320
WIRE -480 -288 -480 -368
WIRE -256 -288 -256 -368
WIRE -80 -288 -80 -320
WIRE 80 -272 80 -320
WIRE -80 -160 -80 -208
WIRE 0 -160 -80 -160
WIRE 80 -160 80 -208
WIRE 80 -160 0 -160
WIRE 0 -112 0 -160
WIRE 128 -112 0 -112
WIRE 256 -112 192 -112
WIRE -448 -64 -736 -64
WIRE -256 -64 -256 -208
WIRE -256 -64 -384 -64
WIRE -64 -64 -256 -64
WIRE -256 -16 -256 -64
WIRE 256 -16 256 -112
WIRE -736 16 -736 -64
WIRE -256 96 -256 64
WIRE 0 96 0 64
WIRE 256 96 256 64
FLAG -736 96 0
FLAG -256 96 0
FLAG 0 96 0
FLAG 256 96 0
FLAG -480 -208 0
FLAG -736 -64 in
FLAG 256 -112 out
FLAG -480 -368 supply
SYMBOL voltage -736 0 R0
WINDOW 123 0 0 Left 0
WINDOW 39 0 0 Left 0
SYMATTR InstName V2
SYMATTR Value AC 1
SYMBOL voltage -480 -304 R0
WINDOW 123 0 0 Left 0
WINDOW 39 0 0 Left 0
SYMATTR InstName V1
SYMATTR Value 10
SYMBOL res 240 -32 R0
SYMATTR InstName R1
SYMATTR Value 120
SYMBOL res -16 -32 R0
SYMATTR InstName R2
SYMATTR Value 3.3
SYMBOL res -272 -32 R0
SYMATTR InstName R3
SYMATTR Value 100
SYMBOL res -272 -304 R0
SYMATTR InstName R4
SYMATTR Value 1.5k
SYMBOL ind -96 -304 R0
SYMATTR InstName L1
SYMATTR Value {X_L}
SYMBOL cap 64 -272 R0
SYMATTR InstName C1
SYMATTR Value {X_C}
SYMBOL cap -384 -80 R90
WINDOW 0 0 32 VBottom 2
WINDOW 3 32 32 VTop 2
SYMATTR InstName C2
SYMATTR Value 100n
SYMBOL cap 192 -128 R90
WINDOW 0 0 32 VBottom 2
WINDOW 3 32 32 VTop 2
SYMATTR InstName C3
SYMATTR Value 1µ
SYMBOL npn -64 -112 R0
SYMATTR InstName Q1
SYMATTR Value 2N2222
TEXT -608 -544 Left 2 ;.tran 0 1.1m 1m
TEXT 792 -440 Left 2 !.meas pin AVG V(supply)*I(V1)
TEXT 792 -408 Left 2 !.meas pout AVG V(out)*I(R1)
TEXT 792 -376 Left 2 !.meas eff param -100*pout/pin
TEXT 792 -320 Left 2 !.meas out PP V(out)
TEXT 792 -288 Left 2 !.meas in PP V(in)
TEXT 792 -256 Left 2 !.meas gain param out/in
TEXT -760 248 Left 2 !.param X_L table(Zx, 1, 10u, 2, 10u, 3, 10u)
TEXT -608 -512 Left 2 !.ac dec 101 1k 1G
TEXT -760 288 Left 2 !.param X_C table(Zx, 1, 1n, 2, 0.05n, 3, 1p)
TEXT -760 216 Left 2 !.step param Zx list 1 2 3 4 5 6 7 8
