Version 4
SHEET 1 880 680
WIRE 128 96 -16 96
WIRE 240 96 208 96
WIRE 288 96 240 96
WIRE 400 96 368 96
WIRE 448 96 400 96
WIRE 560 96 528 96
WIRE 608 96 560 96
WIRE 720 96 688 96
WIRE -16 128 -16 96
WIRE 240 176 240 96
WIRE 400 176 400 96
WIRE 560 176 560 96
WIRE 720 176 720 96
FLAG -16 208 0
FLAG 240 240 0
FLAG 400 240 0
FLAG 560 240 0
FLAG 720 240 0
SYMBOL voltage -16 112 R0
WINDOW 123 24 124 Left 2
WINDOW 39 0 0 Left 0
SYMATTR InstName V1
SYMATTR Value ""
SYMATTR Value2 AC 1
SYMBOL res 224 80 R90
WINDOW 0 0 56 VBottom 2
WINDOW 3 32 56 VTop 2
SYMATTR InstName R1
SYMATTR Value {resistor}
SYMBOL res 384 80 R90
WINDOW 0 0 56 VBottom 2
WINDOW 3 32 56 VTop 2
SYMATTR InstName R2
SYMATTR Value {resistor}
SYMBOL res 544 80 R90
WINDOW 0 0 56 VBottom 2
WINDOW 3 32 56 VTop 2
SYMATTR InstName R3
SYMATTR Value {resistor}
SYMBOL cap 224 176 R0
SYMATTR InstName C1
SYMATTR Value {capacitor}
SYMBOL cap 384 176 R0
SYMATTR InstName C2
SYMATTR Value {capacitor}
SYMBOL cap 544 176 R0
SYMATTR InstName C3
SYMATTR Value {capacitor}
SYMBOL res 704 80 R90
WINDOW 0 0 56 VBottom 2
WINDOW 3 32 56 VTop 2
SYMATTR InstName R4
SYMATTR Value {resistor}
SYMBOL cap 704 176 R0
SYMATTR InstName C4
SYMATTR Value {capacitor}
TEXT 88 -176 Left 2 !.param resistor 1k
TEXT 88 -136 Left 2 !.param capacitor 10n
TEXT 88 -80 Left 2 !.ac oct 10 10 10k
