Version 4
SHEET 1 2204 4164
WIRE 272 64 144 64
WIRE 144 128 144 64
WIRE 144 240 144 208
WIRE 272 288 272 64
FLAG 144 304 0
FLAG 272 288 0
FLAG -112 -112 0
SYMBOL current 144 128 R0
WINDOW 123 0 0 Left 0
WINDOW 39 0 0 Left 0
SYMATTR InstName I1
SYMATTR Value PULSE(0 5 0 1 0)
SYMBOL diode 128 240 R0
SYMATTR InstName D1
SYMATTR Value D1n4004rl
SYMBOL OpAmps\\opamp2 -112 -208 R0
SYMATTR InstName U1
SYMATTR Value NE5532
SYMBOL SN74LV4051A 624 224 R0
SYMATTR InstName U2
TEXT 8 72 Left 2 !.tran 1
